Version 4
SHEET 1 1460 2260
WIRE 400 -192 80 -192
WIRE 768 -192 480 -192
WIRE 400 -96 368 -96
WIRE 768 -96 768 -192
WIRE 768 -96 464 -96
WIRE -256 16 -304 16
WIRE -144 16 -256 16
WIRE 80 16 80 -192
WIRE 80 16 -64 16
WIRE 192 16 80 16
WIRE 368 16 368 -96
WIRE 368 16 272 16
WIRE 768 32 768 -96
WIRE 768 32 592 32
WIRE 80 48 80 16
WIRE 368 48 368 16
WIRE 464 48 368 48
WIRE 672 64 592 64
WIRE 768 64 768 32
WIRE 816 64 768 64
WIRE 944 64 896 64
WIRE 1296 64 1008 64
WIRE -304 80 -304 16
WIRE 464 80 368 80
WIRE 672 96 592 96
WIRE 1296 112 1296 64
WIRE 368 128 368 80
WIRE -1088 160 -1088 144
WIRE -992 160 -992 144
WIRE -304 240 -304 160
WIRE 80 240 80 112
WIRE 368 240 368 208
WIRE 1296 240 1296 192
WIRE -1088 256 -1088 240
WIRE -992 256 -992 240
WIRE 416 400 96 400
WIRE 768 400 496 400
WIRE 416 496 384 496
WIRE 768 496 768 400
WIRE 768 496 480 496
WIRE -240 608 -288 608
WIRE -128 608 -240 608
WIRE 96 608 96 400
WIRE 96 608 -48 608
WIRE 208 608 96 608
WIRE 384 608 384 496
WIRE 384 608 288 608
WIRE 768 624 768 496
WIRE 768 624 592 624
WIRE 96 640 96 608
WIRE 384 640 384 608
WIRE 464 640 384 640
WIRE 608 656 592 656
WIRE 768 656 768 624
WIRE 816 656 768 656
WIRE 944 656 896 656
WIRE 1296 656 1008 656
WIRE -288 672 -288 608
WIRE 464 672 384 672
WIRE 608 688 592 688
WIRE 1296 704 1296 656
WIRE 384 720 384 672
WIRE -288 832 -288 752
WIRE 96 832 96 704
WIRE 384 832 384 800
WIRE 1296 832 1296 784
WIRE 416 1216 96 1216
WIRE 752 1216 496 1216
WIRE 416 1312 384 1312
WIRE 752 1312 752 1216
WIRE 752 1312 480 1312
WIRE -128 1424 -288 1424
WIRE 96 1424 96 1216
WIRE 96 1424 -48 1424
WIRE 208 1424 96 1424
WIRE 384 1424 384 1312
WIRE 384 1424 288 1424
WIRE 752 1440 752 1312
WIRE 752 1440 592 1440
WIRE 96 1456 96 1424
WIRE 384 1456 384 1424
WIRE 464 1456 384 1456
WIRE 608 1472 592 1472
WIRE 752 1472 752 1440
WIRE 800 1472 752 1472
WIRE 928 1472 880 1472
WIRE 1280 1472 992 1472
WIRE -288 1488 -288 1424
WIRE 464 1488 384 1488
WIRE 608 1504 592 1504
WIRE 1280 1520 1280 1472
WIRE 384 1536 384 1488
WIRE -288 1648 -288 1568
WIRE 96 1648 96 1520
WIRE 384 1648 384 1616
WIRE 1280 1648 1280 1600
WIRE 432 1808 112 1808
WIRE 752 1808 512 1808
WIRE 432 1904 400 1904
WIRE 752 1904 752 1808
WIRE 752 1904 496 1904
WIRE -112 2016 -272 2016
WIRE 112 2016 112 1808
WIRE 112 2016 -32 2016
WIRE 224 2016 112 2016
WIRE 400 2016 400 1904
WIRE 400 2016 304 2016
WIRE 752 2032 752 1904
WIRE 752 2032 608 2032
WIRE 112 2048 112 2016
WIRE 400 2048 400 2016
WIRE 480 2048 400 2048
WIRE 624 2064 608 2064
WIRE 752 2064 752 2032
WIRE 800 2064 752 2064
WIRE 928 2064 880 2064
WIRE 1280 2064 992 2064
WIRE -272 2080 -272 2016
WIRE 480 2080 400 2080
WIRE 624 2096 608 2096
WIRE 1280 2112 1280 2064
WIRE 400 2128 400 2080
WIRE -272 2240 -272 2160
WIRE 112 2240 112 2112
WIRE 400 2240 400 2208
WIRE 1280 2240 1280 2192
FLAG -1088 256 0
FLAG -1088 144 V+
FLAG 672 96 V+
FLAG 1296 240 0
FLAG -304 240 0
FLAG 672 64 V-
FLAG -992 256 0
FLAG -992 144 V-
FLAG 80 240 0
FLAG 368 240 0
FLAG -256 16 IN+
FLAG 1296 832 0
FLAG -288 832 0
FLAG 96 832 0
FLAG 384 832 0
FLAG -240 608 IN-
FLAG 1296 64 OUT-
FLAG 1296 656 OUT+
FLAG 1280 1648 0
FLAG -288 1648 0
FLAG 96 1648 0
FLAG 384 1648 0
FLAG 1280 2240 0
FLAG -272 2240 0
FLAG 112 2240 0
FLAG 400 2240 0
FLAG 608 688 V+
FLAG 608 656 V-
FLAG 608 1504 V+
FLAG 608 1472 V-
FLAG 624 2096 V+
FLAG 624 2064 V-
SYMBOL voltage -304 64 R0
WINDOW 3 -220 19 Left 2
WINDOW 123 -108 44 Left 2
WINDOW 39 0 0 Left 0
SYMATTR Value SINE(2.5 2 440)
SYMATTR Value2 AC 1 0
SYMATTR InstName V1
SYMBOL voltage -1088 144 R0
WINDOW 123 0 0 Left 0
WINDOW 39 0 0 Left 0
SYMATTR InstName V2
SYMATTR Value 9
SYMBOL res 288 0 R90
WINDOW 0 0 56 VBottom 2
WINDOW 3 32 56 VTop 2
SYMATTR InstName R1
SYMATTR Value {R2}
SYMBOL cap 464 -112 R90
WINDOW 0 0 32 VBottom 2
WINDOW 3 32 32 VTop 2
SYMATTR InstName C2
SYMATTR Value {C2}
SYMBOL res 912 48 R90
WINDOW 0 0 56 VBottom 2
WINDOW 3 32 56 VTop 2
SYMATTR InstName R3
SYMATTR Value 100
SYMBOL res 1280 96 R0
SYMATTR InstName R4
SYMATTR Value {Rload}
SYMBOL res -160 0 M90
WINDOW 0 0 56 VBottom 2
WINDOW 3 32 56 VTop 2
SYMATTR InstName R6
SYMATTR Value {R1}
SYMBOL res 496 -208 R90
WINDOW 0 0 56 VBottom 2
WINDOW 3 32 56 VTop 2
SYMATTR InstName R8
SYMATTR Value {R3}
SYMBOL voltage -992 144 R0
WINDOW 123 0 0 Left 0
WINDOW 39 0 0 Left 0
SYMATTR InstName V4
SYMATTR Value 0
SYMBOL cap 64 48 R0
SYMATTR InstName C1
SYMATTR Value {C1}
SYMBOL voltage 368 112 R0
WINDOW 123 0 0 Left 0
WINDOW 39 0 0 Left 0
SYMATTR InstName V3
SYMATTR Value 2.5
SYMBOL voltage -288 656 R0
WINDOW 3 -220 19 Left 2
WINDOW 123 -108 44 Left 2
WINDOW 39 0 0 Left 0
SYMATTR Value SINE(2.5 2 440 0 0 180)
SYMATTR Value2 AC 1 180
SYMATTR InstName V5
SYMBOL res 304 592 R90
WINDOW 0 0 56 VBottom 2
WINDOW 3 32 56 VTop 2
SYMATTR InstName R2
SYMATTR Value {R2}
SYMBOL cap 480 480 R90
WINDOW 0 0 32 VBottom 2
WINDOW 3 32 32 VTop 2
SYMATTR InstName C3
SYMATTR Value {C2}
SYMBOL res 912 640 R90
WINDOW 0 0 56 VBottom 2
WINDOW 3 32 56 VTop 2
SYMATTR InstName R5
SYMATTR Value 100
SYMBOL res 1280 688 R0
SYMATTR InstName R7
SYMATTR Value {Rload}
SYMBOL res -144 592 M90
WINDOW 0 0 56 VBottom 2
WINDOW 3 32 56 VTop 2
SYMATTR InstName R9
SYMATTR Value {R1}
SYMBOL res 512 384 R90
WINDOW 0 0 56 VBottom 2
WINDOW 3 32 56 VTop 2
SYMATTR InstName R10
SYMATTR Value {R3}
SYMBOL cap 80 640 R0
SYMATTR InstName C4
SYMATTR Value {C1}
SYMBOL voltage 384 704 R0
WINDOW 123 0 0 Left 0
WINDOW 39 0 0 Left 0
SYMATTR InstName V6
SYMATTR Value 2.5
SYMBOL cap 944 80 R270
WINDOW 0 32 32 VTop 2
WINDOW 3 0 32 VBottom 2
SYMATTR InstName C5
SYMATTR Value {Cout}
SYMBOL cap 944 672 R270
WINDOW 0 32 32 VTop 2
WINDOW 3 0 32 VBottom 2
SYMATTR InstName C6
SYMATTR Value {Cout}
SYMBOL voltage -288 1472 R0
WINDOW 3 -220 19 Left 2
WINDOW 123 -108 44 Left 2
WINDOW 39 0 0 Left 0
SYMATTR Value SINE(2.5 2 440)
SYMATTR Value2 AC 1 0
SYMATTR InstName V7
SYMBOL res 304 1408 R90
WINDOW 0 0 56 VBottom 2
WINDOW 3 32 56 VTop 2
SYMATTR InstName 11k
SYMATTR Value {R2}
SYMBOL cap 480 1296 R90
WINDOW 0 0 32 VBottom 2
WINDOW 3 32 32 VTop 2
SYMATTR InstName C7
SYMATTR Value {C2}
SYMBOL res 896 1456 R90
WINDOW 0 0 56 VBottom 2
WINDOW 3 32 56 VTop 2
SYMATTR InstName R12
SYMATTR Value 100
SYMBOL res 1264 1504 R0
SYMATTR InstName R13
SYMATTR Value {Rload}
SYMBOL res -144 1408 M90
WINDOW 0 0 56 VBottom 2
WINDOW 3 32 56 VTop 2
SYMATTR InstName R14
SYMATTR Value {R1}
SYMBOL res 512 1200 R90
WINDOW 0 0 56 VBottom 2
WINDOW 3 32 56 VTop 2
SYMATTR InstName R15
SYMATTR Value {R3}
SYMBOL cap 80 1456 R0
SYMATTR InstName C8
SYMATTR Value {C1}
SYMBOL voltage 384 1520 R0
WINDOW 123 0 0 Left 0
WINDOW 39 0 0 Left 0
SYMATTR InstName V8
SYMATTR Value 2.5
SYMBOL voltage -272 2064 R0
WINDOW 3 -220 19 Left 2
WINDOW 123 -108 44 Left 2
WINDOW 39 0 0 Left 0
SYMATTR Value SINE(2.5 2 440 0 0 180)
SYMATTR Value2 AC 1 180
SYMATTR InstName V9
SYMBOL res 320 2000 R90
WINDOW 0 0 56 VBottom 2
WINDOW 3 32 56 VTop 2
SYMATTR InstName R16
SYMATTR Value {R2}
SYMBOL cap 496 1888 R90
WINDOW 0 0 32 VBottom 2
WINDOW 3 32 32 VTop 2
SYMATTR InstName C9
SYMATTR Value {C2}
SYMBOL res 896 2048 R90
WINDOW 0 0 56 VBottom 2
WINDOW 3 32 56 VTop 2
SYMATTR InstName R17
SYMATTR Value 100
SYMBOL res 1264 2096 R0
SYMATTR InstName R18
SYMATTR Value {Rload}
SYMBOL res -128 2000 M90
WINDOW 0 0 56 VBottom 2
WINDOW 3 32 56 VTop 2
SYMATTR InstName R19
SYMATTR Value {R1}
SYMBOL res 528 1792 R90
WINDOW 0 0 56 VBottom 2
WINDOW 3 32 56 VTop 2
SYMATTR InstName R20
SYMATTR Value {R3}
SYMBOL cap 96 2048 R0
SYMATTR InstName C10
SYMATTR Value {C1}
SYMBOL voltage 400 2112 R0
WINDOW 123 0 0 Left 0
WINDOW 39 0 0 Left 0
SYMATTR InstName V10
SYMATTR Value 2.5
SYMBOL cap 928 1488 R270
WINDOW 0 32 32 VTop 2
WINDOW 3 0 32 VBottom 2
SYMATTR InstName C11
SYMATTR Value {Cout}
SYMBOL cap 928 2080 R270
WINDOW 0 32 32 VTop 2
WINDOW 3 0 32 VBottom 2
SYMATTR InstName C12
SYMATTR Value {Cout}
SYMBOL OPA161x 528 64 M180
SYMATTR InstName U5
SYMBOL OPA161x 528 656 M180
SYMATTR InstName U1
SYMBOL OPA161x 528 1472 M180
SYMATTR InstName U2
SYMBOL OPA161x 544 2064 M180
SYMATTR InstName U3
TEXT -1120 8 Left 2 !.tran 10m
TEXT -1120 40 Left 2 ;.ac dec 1000 10 1Meg
TEXT -1120 -56 Left 2 !.param R1=8.2k R2=16k R3=3.6k C1=680p C2=220p Cout=33u Rload=10k
TEXT -1120 -80 Left 2 ;step param Rload 1k 20k 3k
TEXT 1240 -72 Left 2 ;1.24VRMS\n \n1.23VRMS = 4dBu\n1.37VRMS = 5 dBu
